config_files/triplex_load_objects.glm
object triplex_line {
	name trip_line_652_A_h_1;
	from trip_node_652_A_1;
	to house_trip_load_652_A_h_1;
	phases AS;
	length 10;
	configuration triplex_line_configuration_1;
}

object triplex_line {
	name trip_line_652_A_h_2;
	from trip_node_652_A_1;
	to house_trip_load_652_A_h_2;
	phases AS;
	length 10;
	configuration triplex_line_configuration_1;
}

object triplex_line {
	name trip_line_652_A_h_3;
	from trip_node_652_A_1;
	to house_trip_load_652_A_h_3;
	phases AS;
	length 10;
	configuration triplex_line_configuration_1;
}

object triplex_line {
	name trip_line_652_A_h_4;
	from trip_node_652_A_1;
	to house_trip_load_652_A_h_4;
	phases AS;
	length 10;
	configuration triplex_line_configuration_1;
}

object triplex_line {
	name trip_line_652_A_h_5;
	from trip_node_652_A_1;
	to house_trip_load_652_A_h_5;
	phases AS;
	length 10;
	configuration triplex_line_configuration_1;
}

object triplex_line {
	name trip_line_652_A_h_6;
	from trip_node_652_A_1;
	to house_trip_load_652_A_h_6;
	phases AS;
	length 10;
	configuration triplex_line_configuration_1;
}

object triplex_line {
	name trip_line_652_A_h_7;
	from trip_node_652_A_1;
	to house_trip_load_652_A_h_7;
	phases AS;
	length 10;
	configuration triplex_line_configuration_1;
}

object triplex_line {
	name trip_line_652_A_h_8;
	from trip_node_652_A_1;
	to house_trip_load_652_A_h_8;
	phases AS;
	length 10;
	configuration triplex_line_configuration_1;
}

object triplex_line {
	name trip_line_652_A_h_9;
	from trip_node_652_A_2;
	to house_trip_load_652_A_h_9;
	phases AS;
	length 10;
	configuration triplex_line_configuration_1;
}

object triplex_line {
	name trip_line_652_A_h_10;
	from trip_node_652_A_2;
	to house_trip_load_652_A_h_10;
	phases AS;
	length 10;
	configuration triplex_line_configuration_1;
}

object triplex_line {
	name trip_line_652_A_h_11;
	from trip_node_652_A_2;
	to house_trip_load_652_A_h_11;
	phases AS;
	length 10;
	configuration triplex_line_configuration_1;
}

object triplex_line {
	name trip_line_652_A_h_12;
	from trip_node_652_A_2;
	to house_trip_load_652_A_h_12;
	phases AS;
	length 10;
	configuration triplex_line_configuration_1;
}

object triplex_line {
	name trip_line_652_A_h_13;
	from trip_node_652_A_2;
	to house_trip_load_652_A_h_13;
	phases AS;
	length 10;
	configuration triplex_line_configuration_1;
}

object triplex_line {
	name trip_line_652_A_h_14;
	from trip_node_652_A_2;
	to house_trip_load_652_A_h_14;
	phases AS;
	length 10;
	configuration triplex_line_configuration_1;
}

object triplex_line {
	name trip_line_652_A_h_15;
	from trip_node_652_A_2;
	to house_trip_load_652_A_h_15;
	phases AS;
	length 10;
	configuration triplex_line_configuration_1;
}

object triplex_line {
	name trip_line_652_A_h_16;
	from trip_node_652_A_2;
	to house_trip_load_652_A_h_16;
	phases AS;
	length 10;
	configuration triplex_line_configuration_1;
}

object triplex_line {
	name trip_line_652_A_h_17;
	from trip_node_652_A_3;
	to house_trip_load_652_A_h_17;
	phases AS;
	length 10;
	configuration triplex_line_configuration_1;
}

object triplex_line {
	name trip_line_652_A_h_18;
	from trip_node_652_A_3;
	to house_trip_load_652_A_h_18;
	phases AS;
	length 10;
	configuration triplex_line_configuration_1;
}

object triplex_line {
	name trip_line_652_A_h_19;
	from trip_node_652_A_3;
	to house_trip_load_652_A_h_19;
	phases AS;
	length 10;
	configuration triplex_line_configuration_1;
}

object triplex_line {
	name trip_line_652_A_h_20;
	from trip_node_652_A_3;
	to house_trip_load_652_A_h_20;
	phases AS;
	length 10;
	configuration triplex_line_configuration_1;
}

object triplex_line {
	name trip_line_652_A_h_21;
	from trip_node_652_A_3;
	to house_trip_load_652_A_h_21;
	phases AS;
	length 10;
	configuration triplex_line_configuration_1;
}

object triplex_line {
	name trip_line_652_A_h_22;
	from trip_node_652_A_3;
	to house_trip_load_652_A_h_22;
	phases AS;
	length 10;
	configuration triplex_line_configuration_1;
}

object triplex_line {
	name trip_line_652_A_h_23;
	from trip_node_652_A_3;
	to house_trip_load_652_A_h_23;
	phases AS;
	length 10;
	configuration triplex_line_configuration_1;
}

object triplex_line {
	name trip_line_652_A_h_24;
	from trip_node_652_A_3;
	to house_trip_load_652_A_h_24;
	phases AS;
	length 10;
	configuration triplex_line_configuration_1;
}

object triplex_line {
	name trip_line_652_A_h_25;
	from trip_node_652_A_4;
	to house_trip_load_652_A_h_25;
	phases AS;
	length 10;
	configuration triplex_line_configuration_1;
}

object triplex_line {
	name trip_line_652_A_h_26;
	from trip_node_652_A_4;
	to house_trip_load_652_A_h_26;
	phases AS;
	length 10;
	configuration triplex_line_configuration_1;
}

object triplex_line {
	name trip_line_652_A_h_27;
	from trip_node_652_A_4;
	to house_trip_load_652_A_h_27;
	phases AS;
	length 10;
	configuration triplex_line_configuration_1;
}

object triplex_line {
	name trip_line_652_A_h_28;
	from trip_node_652_A_4;
	to house_trip_load_652_A_h_28;
	phases AS;
	length 10;
	configuration triplex_line_configuration_1;
}

object triplex_line {
	name trip_line_652_A_h_29;
	from trip_node_652_A_4;
	to house_trip_load_652_A_h_29;
	phases AS;
	length 10;
	configuration triplex_line_configuration_1;
}

object triplex_line {
	name trip_line_652_A_h_30;
	from trip_node_652_A_4;
	to house_trip_load_652_A_h_30;
	phases AS;
	length 10;
	configuration triplex_line_configuration_1;
}

object triplex_line {
	name trip_line_652_A_h_31;
	from trip_node_652_A_4;
	to house_trip_load_652_A_h_31;
	phases AS;
	length 10;
	configuration triplex_line_configuration_1;
}

object triplex_line {
	name trip_line_652_A_h_32;
	from trip_node_652_A_4;
	to house_trip_load_652_A_h_32;
	phases AS;
	length 10;
	configuration triplex_line_configuration_1;
}

object triplex_line {
	name trip_line_652_A_h_33;
	from trip_node_652_A_5;
	to house_trip_load_652_A_h_33;
	phases AS;
	length 10;
	configuration triplex_line_configuration_1;
}

object triplex_line {
	name trip_line_652_A_h_34;
	from trip_node_652_A_5;
	to house_trip_load_652_A_h_34;
	phases AS;
	length 10;
	configuration triplex_line_configuration_1;
}

object triplex_line {
	name trip_line_652_A_h_35;
	from trip_node_652_A_5;
	to house_trip_load_652_A_h_35;
	phases AS;
	length 10;
	configuration triplex_line_configuration_1;
}

object triplex_line {
	name trip_line_652_A_h_36;
	from trip_node_652_A_5;
	to house_trip_load_652_A_h_36;
	phases AS;
	length 10;
	configuration triplex_line_configuration_1;
}

object triplex_line {
	name trip_line_652_A_h_37;
	from trip_node_652_A_5;
	to house_trip_load_652_A_h_37;
	phases AS;
	length 10;
	configuration triplex_line_configuration_1;
}

object triplex_line {
	name trip_line_652_A_h_38;
	from trip_node_652_A_5;
	to house_trip_load_652_A_h_38;
	phases AS;
	length 10;
	configuration triplex_line_configuration_1;
}

object triplex_line {
	name trip_line_652_A_h_39;
	from trip_node_652_A_5;
	to house_trip_load_652_A_h_39;
	phases AS;
	length 10;
	configuration triplex_line_configuration_1;
}

object triplex_line {
	name trip_line_652_A_h_40;
	from trip_node_652_A_5;
	to house_trip_load_652_A_h_40;
	phases AS;
	length 10;
	configuration triplex_line_configuration_1;
}

object triplex_line {
	name trip_line_611_C_h_1;
	from trip_node_611_C_1;
	to house_trip_load_611_C_h_1;
	phases CS;
	length 10;
	configuration triplex_line_configuration_1;
}

object triplex_line {
	name trip_line_611_C_h_2;
	from trip_node_611_C_1;
	to house_trip_load_611_C_h_2;
	phases CS;
	length 10;
	configuration triplex_line_configuration_1;
}

object triplex_line {
	name trip_line_611_C_h_3;
	from trip_node_611_C_1;
	to house_trip_load_611_C_h_3;
	phases CS;
	length 10;
	configuration triplex_line_configuration_1;
}

object triplex_line {
	name trip_line_611_C_h_4;
	from trip_node_611_C_1;
	to house_trip_load_611_C_h_4;
	phases CS;
	length 10;
	configuration triplex_line_configuration_1;
}

object triplex_line {
	name trip_line_611_C_h_5;
	from trip_node_611_C_1;
	to house_trip_load_611_C_h_5;
	phases CS;
	length 10;
	configuration triplex_line_configuration_1;
}

object triplex_line {
	name trip_line_611_C_h_6;
	from trip_node_611_C_1;
	to house_trip_load_611_C_h_6;
	phases CS;
	length 10;
	configuration triplex_line_configuration_1;
}

object triplex_line {
	name trip_line_611_C_h_7;
	from trip_node_611_C_1;
	to house_trip_load_611_C_h_7;
	phases CS;
	length 10;
	configuration triplex_line_configuration_1;
}

object triplex_line {
	name trip_line_611_C_h_8;
	from trip_node_611_C_1;
	to house_trip_load_611_C_h_8;
	phases CS;
	length 10;
	configuration triplex_line_configuration_1;
}

object triplex_line {
	name trip_line_611_C_h_9;
	from trip_node_611_C_2;
	to house_trip_load_611_C_h_9;
	phases CS;
	length 10;
	configuration triplex_line_configuration_1;
}

object triplex_line {
	name trip_line_611_C_h_10;
	from trip_node_611_C_2;
	to house_trip_load_611_C_h_10;
	phases CS;
	length 10;
	configuration triplex_line_configuration_1;
}

object triplex_line {
	name trip_line_611_C_h_11;
	from trip_node_611_C_2;
	to house_trip_load_611_C_h_11;
	phases CS;
	length 10;
	configuration triplex_line_configuration_1;
}

object triplex_line {
	name trip_line_611_C_h_12;
	from trip_node_611_C_2;
	to house_trip_load_611_C_h_12;
	phases CS;
	length 10;
	configuration triplex_line_configuration_1;
}

object triplex_line {
	name trip_line_611_C_h_13;
	from trip_node_611_C_2;
	to house_trip_load_611_C_h_13;
	phases CS;
	length 10;
	configuration triplex_line_configuration_1;
}

object triplex_line {
	name trip_line_611_C_h_14;
	from trip_node_611_C_2;
	to house_trip_load_611_C_h_14;
	phases CS;
	length 10;
	configuration triplex_line_configuration_1;
}

object triplex_line {
	name trip_line_611_C_h_15;
	from trip_node_611_C_2;
	to house_trip_load_611_C_h_15;
	phases CS;
	length 10;
	configuration triplex_line_configuration_1;
}

object triplex_line {
	name trip_line_611_C_h_16;
	from trip_node_611_C_2;
	to house_trip_load_611_C_h_16;
	phases CS;
	length 10;
	configuration triplex_line_configuration_1;
}

object triplex_line {
	name trip_line_611_C_h_17;
	from trip_node_611_C_3;
	to house_trip_load_611_C_h_17;
	phases CS;
	length 10;
	configuration triplex_line_configuration_1;
}

object triplex_line {
	name trip_line_611_C_h_18;
	from trip_node_611_C_3;
	to house_trip_load_611_C_h_18;
	phases CS;
	length 10;
	configuration triplex_line_configuration_1;
}

object triplex_line {
	name trip_line_611_C_h_19;
	from trip_node_611_C_3;
	to house_trip_load_611_C_h_19;
	phases CS;
	length 10;
	configuration triplex_line_configuration_1;
}

object triplex_line {
	name trip_line_611_C_h_20;
	from trip_node_611_C_3;
	to house_trip_load_611_C_h_20;
	phases CS;
	length 10;
	configuration triplex_line_configuration_1;
}

object triplex_line {
	name trip_line_611_C_h_21;
	from trip_node_611_C_3;
	to house_trip_load_611_C_h_21;
	phases CS;
	length 10;
	configuration triplex_line_configuration_1;
}

object triplex_line {
	name trip_line_611_C_h_22;
	from trip_node_611_C_3;
	to house_trip_load_611_C_h_22;
	phases CS;
	length 10;
	configuration triplex_line_configuration_1;
}

object triplex_line {
	name trip_line_611_C_h_23;
	from trip_node_611_C_3;
	to house_trip_load_611_C_h_23;
	phases CS;
	length 10;
	configuration triplex_line_configuration_1;
}

object triplex_line {
	name trip_line_611_C_h_24;
	from trip_node_611_C_3;
	to house_trip_load_611_C_h_24;
	phases CS;
	length 10;
	configuration triplex_line_configuration_1;
}

object triplex_line {
	name trip_line_611_C_h_25;
	from trip_node_611_C_4;
	to house_trip_load_611_C_h_25;
	phases CS;
	length 10;
	configuration triplex_line_configuration_1;
}

object triplex_line {
	name trip_line_611_C_h_26;
	from trip_node_611_C_4;
	to house_trip_load_611_C_h_26;
	phases CS;
	length 10;
	configuration triplex_line_configuration_1;
}

object triplex_line {
	name trip_line_611_C_h_27;
	from trip_node_611_C_4;
	to house_trip_load_611_C_h_27;
	phases CS;
	length 10;
	configuration triplex_line_configuration_1;
}

object triplex_line {
	name trip_line_611_C_h_28;
	from trip_node_611_C_4;
	to house_trip_load_611_C_h_28;
	phases CS;
	length 10;
	configuration triplex_line_configuration_1;
}

object triplex_line {
	name trip_line_611_C_h_29;
	from trip_node_611_C_4;
	to house_trip_load_611_C_h_29;
	phases CS;
	length 10;
	configuration triplex_line_configuration_1;
}

object triplex_line {
	name trip_line_611_C_h_30;
	from trip_node_611_C_4;
	to house_trip_load_611_C_h_30;
	phases CS;
	length 10;
	configuration triplex_line_configuration_1;
}

object triplex_line {
	name trip_line_611_C_h_31;
	from trip_node_611_C_4;
	to house_trip_load_611_C_h_31;
	phases CS;
	length 10;
	configuration triplex_line_configuration_1;
}

object triplex_line {
	name trip_line_611_C_h_32;
	from trip_node_611_C_4;
	to house_trip_load_611_C_h_32;
	phases CS;
	length 10;
	configuration triplex_line_configuration_1;
}

object triplex_line {
	name trip_line_611_C_h_33;
	from trip_node_611_C_5;
	to house_trip_load_611_C_h_33;
	phases CS;
	length 10;
	configuration triplex_line_configuration_1;
}

object triplex_line {
	name trip_line_611_C_h_34;
	from trip_node_611_C_5;
	to house_trip_load_611_C_h_34;
	phases CS;
	length 10;
	configuration triplex_line_configuration_1;
}

object triplex_line {
	name trip_line_611_C_h_35;
	from trip_node_611_C_5;
	to house_trip_load_611_C_h_35;
	phases CS;
	length 10;
	configuration triplex_line_configuration_1;
}

object triplex_line {
	name trip_line_611_C_h_36;
	from trip_node_611_C_5;
	to house_trip_load_611_C_h_36;
	phases CS;
	length 10;
	configuration triplex_line_configuration_1;
}

object triplex_line {
	name trip_line_611_C_h_37;
	from trip_node_611_C_5;
	to house_trip_load_611_C_h_37;
	phases CS;
	length 10;
	configuration triplex_line_configuration_1;
}

object triplex_line {
	name trip_line_611_C_h_38;
	from trip_node_611_C_5;
	to house_trip_load_611_C_h_38;
	phases CS;
	length 10;
	configuration triplex_line_configuration_1;
}

object triplex_line {
	name trip_line_611_C_h_39;
	from trip_node_611_C_5;
	to house_trip_load_611_C_h_39;
	phases CS;
	length 10;
	configuration triplex_line_configuration_1;
}

object triplex_line {
	name trip_line_611_C_h_40;
	from trip_node_611_C_5;
	to house_trip_load_611_C_h_40;
	phases CS;
	length 10;
	configuration triplex_line_configuration_1;
}

object triplex_line {
	name trip_line_684_C_h_1;
	from trip_node_684_C_1;
	to house_trip_load_684_C_h_1;
	phases CS;
	length 10;
	configuration triplex_line_configuration_1;
}

object triplex_line {
	name trip_line_684_C_h_2;
	from trip_node_684_C_1;
	to house_trip_load_684_C_h_2;
	phases CS;
	length 10;
	configuration triplex_line_configuration_1;
}

object triplex_line {
	name trip_line_684_C_h_3;
	from trip_node_684_C_1;
	to house_trip_load_684_C_h_3;
	phases CS;
	length 10;
	configuration triplex_line_configuration_1;
}

object triplex_line {
	name trip_line_684_C_h_4;
	from trip_node_684_C_1;
	to house_trip_load_684_C_h_4;
	phases CS;
	length 10;
	configuration triplex_line_configuration_1;
}

object triplex_line {
	name trip_line_684_C_h_5;
	from trip_node_684_C_1;
	to house_trip_load_684_C_h_5;
	phases CS;
	length 10;
	configuration triplex_line_configuration_1;
}

object triplex_line {
	name trip_line_684_C_h_6;
	from trip_node_684_C_1;
	to house_trip_load_684_C_h_6;
	phases CS;
	length 10;
	configuration triplex_line_configuration_1;
}

object triplex_line {
	name trip_line_684_C_h_7;
	from trip_node_684_C_1;
	to house_trip_load_684_C_h_7;
	phases CS;
	length 10;
	configuration triplex_line_configuration_1;
}

object triplex_line {
	name trip_line_684_C_h_8;
	from trip_node_684_C_1;
	to house_trip_load_684_C_h_8;
	phases CS;
	length 10;
	configuration triplex_line_configuration_1;
}

object triplex_line {
	name trip_line_684_C_h_9;
	from trip_node_684_C_2;
	to house_trip_load_684_C_h_9;
	phases CS;
	length 10;
	configuration triplex_line_configuration_1;
}

object triplex_line {
	name trip_line_684_C_h_10;
	from trip_node_684_C_2;
	to house_trip_load_684_C_h_10;
	phases CS;
	length 10;
	configuration triplex_line_configuration_1;
}

object triplex_line {
	name trip_line_684_C_h_11;
	from trip_node_684_C_2;
	to house_trip_load_684_C_h_11;
	phases CS;
	length 10;
	configuration triplex_line_configuration_1;
}

object triplex_line {
	name trip_line_684_C_h_12;
	from trip_node_684_C_2;
	to house_trip_load_684_C_h_12;
	phases CS;
	length 10;
	configuration triplex_line_configuration_1;
}

object triplex_line {
	name trip_line_684_C_h_13;
	from trip_node_684_C_2;
	to house_trip_load_684_C_h_13;
	phases CS;
	length 10;
	configuration triplex_line_configuration_1;
}

object triplex_line {
	name trip_line_684_C_h_14;
	from trip_node_684_C_2;
	to house_trip_load_684_C_h_14;
	phases CS;
	length 10;
	configuration triplex_line_configuration_1;
}

object triplex_line {
	name trip_line_684_C_h_15;
	from trip_node_684_C_2;
	to house_trip_load_684_C_h_15;
	phases CS;
	length 10;
	configuration triplex_line_configuration_1;
}

object triplex_line {
	name trip_line_684_C_h_16;
	from trip_node_684_C_2;
	to house_trip_load_684_C_h_16;
	phases CS;
	length 10;
	configuration triplex_line_configuration_1;
}

object triplex_line {
	name trip_line_684_C_h_17;
	from trip_node_684_C_3;
	to house_trip_load_684_C_h_17;
	phases CS;
	length 10;
	configuration triplex_line_configuration_1;
}

object triplex_line {
	name trip_line_684_C_h_18;
	from trip_node_684_C_3;
	to house_trip_load_684_C_h_18;
	phases CS;
	length 10;
	configuration triplex_line_configuration_1;
}

object triplex_line {
	name trip_line_684_C_h_19;
	from trip_node_684_C_3;
	to house_trip_load_684_C_h_19;
	phases CS;
	length 10;
	configuration triplex_line_configuration_1;
}

object triplex_line {
	name trip_line_684_C_h_20;
	from trip_node_684_C_3;
	to house_trip_load_684_C_h_20;
	phases CS;
	length 10;
	configuration triplex_line_configuration_1;
}

object triplex_line {
	name trip_line_684_C_h_21;
	from trip_node_684_C_3;
	to house_trip_load_684_C_h_21;
	phases CS;
	length 10;
	configuration triplex_line_configuration_1;
}

object triplex_line {
	name trip_line_684_C_h_22;
	from trip_node_684_C_3;
	to house_trip_load_684_C_h_22;
	phases CS;
	length 10;
	configuration triplex_line_configuration_1;
}

object triplex_line {
	name trip_line_684_C_h_23;
	from trip_node_684_C_3;
	to house_trip_load_684_C_h_23;
	phases CS;
	length 10;
	configuration triplex_line_configuration_1;
}

object triplex_line {
	name trip_line_684_C_h_24;
	from trip_node_684_C_3;
	to house_trip_load_684_C_h_24;
	phases CS;
	length 10;
	configuration triplex_line_configuration_1;
}

object triplex_line {
	name trip_line_684_C_h_25;
	from trip_node_684_C_4;
	to house_trip_load_684_C_h_25;
	phases CS;
	length 10;
	configuration triplex_line_configuration_1;
}

object triplex_line {
	name trip_line_684_C_h_26;
	from trip_node_684_C_4;
	to house_trip_load_684_C_h_26;
	phases CS;
	length 10;
	configuration triplex_line_configuration_1;
}

object triplex_line {
	name trip_line_684_C_h_27;
	from trip_node_684_C_4;
	to house_trip_load_684_C_h_27;
	phases CS;
	length 10;
	configuration triplex_line_configuration_1;
}

object triplex_line {
	name trip_line_684_C_h_28;
	from trip_node_684_C_4;
	to house_trip_load_684_C_h_28;
	phases CS;
	length 10;
	configuration triplex_line_configuration_1;
}

object triplex_line {
	name trip_line_684_C_h_29;
	from trip_node_684_C_4;
	to house_trip_load_684_C_h_29;
	phases CS;
	length 10;
	configuration triplex_line_configuration_1;
}

object triplex_line {
	name trip_line_684_C_h_30;
	from trip_node_684_C_4;
	to house_trip_load_684_C_h_30;
	phases CS;
	length 10;
	configuration triplex_line_configuration_1;
}

object triplex_line {
	name trip_line_684_C_h_31;
	from trip_node_684_C_4;
	to house_trip_load_684_C_h_31;
	phases CS;
	length 10;
	configuration triplex_line_configuration_1;
}

object triplex_line {
	name trip_line_684_C_h_32;
	from trip_node_684_C_4;
	to house_trip_load_684_C_h_32;
	phases CS;
	length 10;
	configuration triplex_line_configuration_1;
}

object triplex_line {
	name trip_line_684_C_h_33;
	from trip_node_684_C_5;
	to house_trip_load_684_C_h_33;
	phases CS;
	length 10;
	configuration triplex_line_configuration_1;
}

object triplex_line {
	name trip_line_684_C_h_34;
	from trip_node_684_C_5;
	to house_trip_load_684_C_h_34;
	phases CS;
	length 10;
	configuration triplex_line_configuration_1;
}

object triplex_line {
	name trip_line_684_C_h_35;
	from trip_node_684_C_5;
	to house_trip_load_684_C_h_35;
	phases CS;
	length 10;
	configuration triplex_line_configuration_1;
}

object triplex_line {
	name trip_line_684_C_h_36;
	from trip_node_684_C_5;
	to house_trip_load_684_C_h_36;
	phases CS;
	length 10;
	configuration triplex_line_configuration_1;
}

object triplex_line {
	name trip_line_684_C_h_37;
	from trip_node_684_C_5;
	to house_trip_load_684_C_h_37;
	phases CS;
	length 10;
	configuration triplex_line_configuration_1;
}

object triplex_line {
	name trip_line_684_C_h_38;
	from trip_node_684_C_5;
	to house_trip_load_684_C_h_38;
	phases CS;
	length 10;
	configuration triplex_line_configuration_1;
}

object triplex_line {
	name trip_line_684_C_h_39;
	from trip_node_684_C_5;
	to house_trip_load_684_C_h_39;
	phases CS;
	length 10;
	configuration triplex_line_configuration_1;
}

object triplex_line {
	name trip_line_684_C_h_40;
	from trip_node_684_C_5;
	to house_trip_load_684_C_h_40;
	phases CS;
	length 10;
	configuration triplex_line_configuration_1;
}

object triplex_line {
	name trip_line_684_A_h_1;
	from trip_node_684_A_1;
	to house_trip_load_684_A_h_1;
	phases AS;
	length 10;
	configuration triplex_line_configuration_1;
}

object triplex_line {
	name trip_line_684_A_h_2;
	from trip_node_684_A_1;
	to house_trip_load_684_A_h_2;
	phases AS;
	length 10;
	configuration triplex_line_configuration_1;
}

object triplex_line {
	name trip_line_684_A_h_3;
	from trip_node_684_A_1;
	to house_trip_load_684_A_h_3;
	phases AS;
	length 10;
	configuration triplex_line_configuration_1;
}

object triplex_line {
	name trip_line_684_A_h_4;
	from trip_node_684_A_1;
	to house_trip_load_684_A_h_4;
	phases AS;
	length 10;
	configuration triplex_line_configuration_1;
}

object triplex_line {
	name trip_line_684_A_h_5;
	from trip_node_684_A_1;
	to house_trip_load_684_A_h_5;
	phases AS;
	length 10;
	configuration triplex_line_configuration_1;
}

object triplex_line {
	name trip_line_684_A_h_6;
	from trip_node_684_A_1;
	to house_trip_load_684_A_h_6;
	phases AS;
	length 10;
	configuration triplex_line_configuration_1;
}

object triplex_line {
	name trip_line_684_A_h_7;
	from trip_node_684_A_1;
	to house_trip_load_684_A_h_7;
	phases AS;
	length 10;
	configuration triplex_line_configuration_1;
}

object triplex_line {
	name trip_line_684_A_h_8;
	from trip_node_684_A_1;
	to house_trip_load_684_A_h_8;
	phases AS;
	length 10;
	configuration triplex_line_configuration_1;
}

object triplex_line {
	name trip_line_684_A_h_9;
	from trip_node_684_A_2;
	to house_trip_load_684_A_h_9;
	phases AS;
	length 10;
	configuration triplex_line_configuration_1;
}

object triplex_line {
	name trip_line_684_A_h_10;
	from trip_node_684_A_2;
	to house_trip_load_684_A_h_10;
	phases AS;
	length 10;
	configuration triplex_line_configuration_1;
}

object triplex_line {
	name trip_line_684_A_h_11;
	from trip_node_684_A_2;
	to house_trip_load_684_A_h_11;
	phases AS;
	length 10;
	configuration triplex_line_configuration_1;
}

object triplex_line {
	name trip_line_684_A_h_12;
	from trip_node_684_A_2;
	to house_trip_load_684_A_h_12;
	phases AS;
	length 10;
	configuration triplex_line_configuration_1;
}

object triplex_line {
	name trip_line_684_A_h_13;
	from trip_node_684_A_2;
	to house_trip_load_684_A_h_13;
	phases AS;
	length 10;
	configuration triplex_line_configuration_1;
}

object triplex_line {
	name trip_line_684_A_h_14;
	from trip_node_684_A_2;
	to house_trip_load_684_A_h_14;
	phases AS;
	length 10;
	configuration triplex_line_configuration_1;
}

object triplex_line {
	name trip_line_684_A_h_15;
	from trip_node_684_A_2;
	to house_trip_load_684_A_h_15;
	phases AS;
	length 10;
	configuration triplex_line_configuration_1;
}

object triplex_line {
	name trip_line_684_A_h_16;
	from trip_node_684_A_2;
	to house_trip_load_684_A_h_16;
	phases AS;
	length 10;
	configuration triplex_line_configuration_1;
}

object triplex_line {
	name trip_line_684_A_h_17;
	from trip_node_684_A_3;
	to house_trip_load_684_A_h_17;
	phases AS;
	length 10;
	configuration triplex_line_configuration_1;
}

object triplex_line {
	name trip_line_684_A_h_18;
	from trip_node_684_A_3;
	to house_trip_load_684_A_h_18;
	phases AS;
	length 10;
	configuration triplex_line_configuration_1;
}

object triplex_line {
	name trip_line_684_A_h_19;
	from trip_node_684_A_3;
	to house_trip_load_684_A_h_19;
	phases AS;
	length 10;
	configuration triplex_line_configuration_1;
}

object triplex_line {
	name trip_line_684_A_h_20;
	from trip_node_684_A_3;
	to house_trip_load_684_A_h_20;
	phases AS;
	length 10;
	configuration triplex_line_configuration_1;
}

object triplex_line {
	name trip_line_684_A_h_21;
	from trip_node_684_A_3;
	to house_trip_load_684_A_h_21;
	phases AS;
	length 10;
	configuration triplex_line_configuration_1;
}

object triplex_line {
	name trip_line_684_A_h_22;
	from trip_node_684_A_3;
	to house_trip_load_684_A_h_22;
	phases AS;
	length 10;
	configuration triplex_line_configuration_1;
}

object triplex_line {
	name trip_line_684_A_h_23;
	from trip_node_684_A_3;
	to house_trip_load_684_A_h_23;
	phases AS;
	length 10;
	configuration triplex_line_configuration_1;
}

object triplex_line {
	name trip_line_684_A_h_24;
	from trip_node_684_A_3;
	to house_trip_load_684_A_h_24;
	phases AS;
	length 10;
	configuration triplex_line_configuration_1;
}

object triplex_line {
	name trip_line_684_A_h_25;
	from trip_node_684_A_4;
	to house_trip_load_684_A_h_25;
	phases AS;
	length 10;
	configuration triplex_line_configuration_1;
}

object triplex_line {
	name trip_line_684_A_h_26;
	from trip_node_684_A_4;
	to house_trip_load_684_A_h_26;
	phases AS;
	length 10;
	configuration triplex_line_configuration_1;
}

object triplex_line {
	name trip_line_684_A_h_27;
	from trip_node_684_A_4;
	to house_trip_load_684_A_h_27;
	phases AS;
	length 10;
	configuration triplex_line_configuration_1;
}

object triplex_line {
	name trip_line_684_A_h_28;
	from trip_node_684_A_4;
	to house_trip_load_684_A_h_28;
	phases AS;
	length 10;
	configuration triplex_line_configuration_1;
}

object triplex_line {
	name trip_line_684_A_h_29;
	from trip_node_684_A_4;
	to house_trip_load_684_A_h_29;
	phases AS;
	length 10;
	configuration triplex_line_configuration_1;
}

object triplex_line {
	name trip_line_684_A_h_30;
	from trip_node_684_A_4;
	to house_trip_load_684_A_h_30;
	phases AS;
	length 10;
	configuration triplex_line_configuration_1;
}

object triplex_line {
	name trip_line_684_A_h_31;
	from trip_node_684_A_4;
	to house_trip_load_684_A_h_31;
	phases AS;
	length 10;
	configuration triplex_line_configuration_1;
}

object triplex_line {
	name trip_line_684_A_h_32;
	from trip_node_684_A_4;
	to house_trip_load_684_A_h_32;
	phases AS;
	length 10;
	configuration triplex_line_configuration_1;
}

object triplex_line {
	name trip_line_684_A_h_33;
	from trip_node_684_A_5;
	to house_trip_load_684_A_h_33;
	phases AS;
	length 10;
	configuration triplex_line_configuration_1;
}

object triplex_line {
	name trip_line_684_A_h_34;
	from trip_node_684_A_5;
	to house_trip_load_684_A_h_34;
	phases AS;
	length 10;
	configuration triplex_line_configuration_1;
}

object triplex_line {
	name trip_line_684_A_h_35;
	from trip_node_684_A_5;
	to house_trip_load_684_A_h_35;
	phases AS;
	length 10;
	configuration triplex_line_configuration_1;
}

object triplex_line {
	name trip_line_684_A_h_36;
	from trip_node_684_A_5;
	to house_trip_load_684_A_h_36;
	phases AS;
	length 10;
	configuration triplex_line_configuration_1;
}

object triplex_line {
	name trip_line_684_A_h_37;
	from trip_node_684_A_5;
	to house_trip_load_684_A_h_37;
	phases AS;
	length 10;
	configuration triplex_line_configuration_1;
}

object triplex_line {
	name trip_line_684_A_h_38;
	from trip_node_684_A_5;
	to house_trip_load_684_A_h_38;
	phases AS;
	length 10;
	configuration triplex_line_configuration_1;
}

object triplex_line {
	name trip_line_684_A_h_39;
	from trip_node_684_A_5;
	to house_trip_load_684_A_h_39;
	phases AS;
	length 10;
	configuration triplex_line_configuration_1;
}

object triplex_line {
	name trip_line_684_A_h_40;
	from trip_node_684_A_5;
	to house_trip_load_684_A_h_40;
	phases AS;
	length 10;
	configuration triplex_line_configuration_1;
}

object triplex_line {
	name trip_line_645_B_h_1;
	from trip_node_645_B_1;
	to house_trip_load_645_B_h_1;
	phases BS;
	length 10;
	configuration triplex_line_configuration_1;
}

object triplex_line {
	name trip_line_645_B_h_2;
	from trip_node_645_B_1;
	to house_trip_load_645_B_h_2;
	phases BS;
	length 10;
	configuration triplex_line_configuration_1;
}

object triplex_line {
	name trip_line_645_B_h_3;
	from trip_node_645_B_1;
	to house_trip_load_645_B_h_3;
	phases BS;
	length 10;
	configuration triplex_line_configuration_1;
}

object triplex_line {
	name trip_line_645_B_h_4;
	from trip_node_645_B_1;
	to house_trip_load_645_B_h_4;
	phases BS;
	length 10;
	configuration triplex_line_configuration_1;
}

object triplex_line {
	name trip_line_645_B_h_5;
	from trip_node_645_B_1;
	to house_trip_load_645_B_h_5;
	phases BS;
	length 10;
	configuration triplex_line_configuration_1;
}

object triplex_line {
	name trip_line_645_B_h_6;
	from trip_node_645_B_1;
	to house_trip_load_645_B_h_6;
	phases BS;
	length 10;
	configuration triplex_line_configuration_1;
}

object triplex_line {
	name trip_line_645_B_h_7;
	from trip_node_645_B_1;
	to house_trip_load_645_B_h_7;
	phases BS;
	length 10;
	configuration triplex_line_configuration_1;
}

object triplex_line {
	name trip_line_645_B_h_8;
	from trip_node_645_B_1;
	to house_trip_load_645_B_h_8;
	phases BS;
	length 10;
	configuration triplex_line_configuration_1;
}

object triplex_line {
	name trip_line_645_B_h_9;
	from trip_node_645_B_2;
	to house_trip_load_645_B_h_9;
	phases BS;
	length 10;
	configuration triplex_line_configuration_1;
}

object triplex_line {
	name trip_line_645_B_h_10;
	from trip_node_645_B_2;
	to house_trip_load_645_B_h_10;
	phases BS;
	length 10;
	configuration triplex_line_configuration_1;
}

object triplex_line {
	name trip_line_645_B_h_11;
	from trip_node_645_B_2;
	to house_trip_load_645_B_h_11;
	phases BS;
	length 10;
	configuration triplex_line_configuration_1;
}

object triplex_line {
	name trip_line_645_B_h_12;
	from trip_node_645_B_2;
	to house_trip_load_645_B_h_12;
	phases BS;
	length 10;
	configuration triplex_line_configuration_1;
}

object triplex_line {
	name trip_line_645_B_h_13;
	from trip_node_645_B_2;
	to house_trip_load_645_B_h_13;
	phases BS;
	length 10;
	configuration triplex_line_configuration_1;
}

object triplex_line {
	name trip_line_645_B_h_14;
	from trip_node_645_B_2;
	to house_trip_load_645_B_h_14;
	phases BS;
	length 10;
	configuration triplex_line_configuration_1;
}

object triplex_line {
	name trip_line_645_B_h_15;
	from trip_node_645_B_2;
	to house_trip_load_645_B_h_15;
	phases BS;
	length 10;
	configuration triplex_line_configuration_1;
}

object triplex_line {
	name trip_line_645_B_h_16;
	from trip_node_645_B_2;
	to house_trip_load_645_B_h_16;
	phases BS;
	length 10;
	configuration triplex_line_configuration_1;
}

object triplex_line {
	name trip_line_645_B_h_17;
	from trip_node_645_B_3;
	to house_trip_load_645_B_h_17;
	phases BS;
	length 10;
	configuration triplex_line_configuration_1;
}

object triplex_line {
	name trip_line_645_B_h_18;
	from trip_node_645_B_3;
	to house_trip_load_645_B_h_18;
	phases BS;
	length 10;
	configuration triplex_line_configuration_1;
}

object triplex_line {
	name trip_line_645_B_h_19;
	from trip_node_645_B_3;
	to house_trip_load_645_B_h_19;
	phases BS;
	length 10;
	configuration triplex_line_configuration_1;
}

object triplex_line {
	name trip_line_645_B_h_20;
	from trip_node_645_B_3;
	to house_trip_load_645_B_h_20;
	phases BS;
	length 10;
	configuration triplex_line_configuration_1;
}

object triplex_line {
	name trip_line_645_B_h_21;
	from trip_node_645_B_3;
	to house_trip_load_645_B_h_21;
	phases BS;
	length 10;
	configuration triplex_line_configuration_1;
}

object triplex_line {
	name trip_line_645_B_h_22;
	from trip_node_645_B_3;
	to house_trip_load_645_B_h_22;
	phases BS;
	length 10;
	configuration triplex_line_configuration_1;
}

object triplex_line {
	name trip_line_645_B_h_23;
	from trip_node_645_B_3;
	to house_trip_load_645_B_h_23;
	phases BS;
	length 10;
	configuration triplex_line_configuration_1;
}

object triplex_line {
	name trip_line_645_B_h_24;
	from trip_node_645_B_3;
	to house_trip_load_645_B_h_24;
	phases BS;
	length 10;
	configuration triplex_line_configuration_1;
}

object triplex_line {
	name trip_line_645_B_h_25;
	from trip_node_645_B_4;
	to house_trip_load_645_B_h_25;
	phases BS;
	length 10;
	configuration triplex_line_configuration_1;
}

object triplex_line {
	name trip_line_645_B_h_26;
	from trip_node_645_B_4;
	to house_trip_load_645_B_h_26;
	phases BS;
	length 10;
	configuration triplex_line_configuration_1;
}

object triplex_line {
	name trip_line_645_B_h_27;
	from trip_node_645_B_4;
	to house_trip_load_645_B_h_27;
	phases BS;
	length 10;
	configuration triplex_line_configuration_1;
}

object triplex_line {
	name trip_line_645_B_h_28;
	from trip_node_645_B_4;
	to house_trip_load_645_B_h_28;
	phases BS;
	length 10;
	configuration triplex_line_configuration_1;
}

object triplex_line {
	name trip_line_645_B_h_29;
	from trip_node_645_B_4;
	to house_trip_load_645_B_h_29;
	phases BS;
	length 10;
	configuration triplex_line_configuration_1;
}

object triplex_line {
	name trip_line_645_B_h_30;
	from trip_node_645_B_4;
	to house_trip_load_645_B_h_30;
	phases BS;
	length 10;
	configuration triplex_line_configuration_1;
}

object triplex_line {
	name trip_line_645_B_h_31;
	from trip_node_645_B_4;
	to house_trip_load_645_B_h_31;
	phases BS;
	length 10;
	configuration triplex_line_configuration_1;
}

object triplex_line {
	name trip_line_645_B_h_32;
	from trip_node_645_B_4;
	to house_trip_load_645_B_h_32;
	phases BS;
	length 10;
	configuration triplex_line_configuration_1;
}

object triplex_line {
	name trip_line_645_B_h_33;
	from trip_node_645_B_5;
	to house_trip_load_645_B_h_33;
	phases BS;
	length 10;
	configuration triplex_line_configuration_1;
}

object triplex_line {
	name trip_line_645_B_h_34;
	from trip_node_645_B_5;
	to house_trip_load_645_B_h_34;
	phases BS;
	length 10;
	configuration triplex_line_configuration_1;
}

object triplex_line {
	name trip_line_645_B_h_35;
	from trip_node_645_B_5;
	to house_trip_load_645_B_h_35;
	phases BS;
	length 10;
	configuration triplex_line_configuration_1;
}

object triplex_line {
	name trip_line_645_B_h_36;
	from trip_node_645_B_5;
	to house_trip_load_645_B_h_36;
	phases BS;
	length 10;
	configuration triplex_line_configuration_1;
}

object triplex_line {
	name trip_line_645_B_h_37;
	from trip_node_645_B_5;
	to house_trip_load_645_B_h_37;
	phases BS;
	length 10;
	configuration triplex_line_configuration_1;
}

object triplex_line {
	name trip_line_645_B_h_38;
	from trip_node_645_B_5;
	to house_trip_load_645_B_h_38;
	phases BS;
	length 10;
	configuration triplex_line_configuration_1;
}

object triplex_line {
	name trip_line_645_B_h_39;
	from trip_node_645_B_5;
	to house_trip_load_645_B_h_39;
	phases BS;
	length 10;
	configuration triplex_line_configuration_1;
}

object triplex_line {
	name trip_line_645_B_h_40;
	from trip_node_645_B_5;
	to house_trip_load_645_B_h_40;
	phases BS;
	length 10;
	configuration triplex_line_configuration_1;
}

object triplex_line {
	name trip_line_645_C_h_1;
	from trip_node_645_C_1;
	to house_trip_load_645_C_h_1;
	phases CS;
	length 10;
	configuration triplex_line_configuration_1;
}

object triplex_line {
	name trip_line_645_C_h_2;
	from trip_node_645_C_1;
	to house_trip_load_645_C_h_2;
	phases CS;
	length 10;
	configuration triplex_line_configuration_1;
}

object triplex_line {
	name trip_line_645_C_h_3;
	from trip_node_645_C_1;
	to house_trip_load_645_C_h_3;
	phases CS;
	length 10;
	configuration triplex_line_configuration_1;
}

object triplex_line {
	name trip_line_645_C_h_4;
	from trip_node_645_C_1;
	to house_trip_load_645_C_h_4;
	phases CS;
	length 10;
	configuration triplex_line_configuration_1;
}

object triplex_line {
	name trip_line_645_C_h_5;
	from trip_node_645_C_1;
	to house_trip_load_645_C_h_5;
	phases CS;
	length 10;
	configuration triplex_line_configuration_1;
}

object triplex_line {
	name trip_line_645_C_h_6;
	from trip_node_645_C_1;
	to house_trip_load_645_C_h_6;
	phases CS;
	length 10;
	configuration triplex_line_configuration_1;
}

object triplex_line {
	name trip_line_645_C_h_7;
	from trip_node_645_C_1;
	to house_trip_load_645_C_h_7;
	phases CS;
	length 10;
	configuration triplex_line_configuration_1;
}

object triplex_line {
	name trip_line_645_C_h_8;
	from trip_node_645_C_1;
	to house_trip_load_645_C_h_8;
	phases CS;
	length 10;
	configuration triplex_line_configuration_1;
}

object triplex_line {
	name trip_line_645_C_h_9;
	from trip_node_645_C_2;
	to house_trip_load_645_C_h_9;
	phases CS;
	length 10;
	configuration triplex_line_configuration_1;
}

object triplex_line {
	name trip_line_645_C_h_10;
	from trip_node_645_C_2;
	to house_trip_load_645_C_h_10;
	phases CS;
	length 10;
	configuration triplex_line_configuration_1;
}

object triplex_line {
	name trip_line_645_C_h_11;
	from trip_node_645_C_2;
	to house_trip_load_645_C_h_11;
	phases CS;
	length 10;
	configuration triplex_line_configuration_1;
}

object triplex_line {
	name trip_line_645_C_h_12;
	from trip_node_645_C_2;
	to house_trip_load_645_C_h_12;
	phases CS;
	length 10;
	configuration triplex_line_configuration_1;
}

object triplex_line {
	name trip_line_645_C_h_13;
	from trip_node_645_C_2;
	to house_trip_load_645_C_h_13;
	phases CS;
	length 10;
	configuration triplex_line_configuration_1;
}

object triplex_line {
	name trip_line_645_C_h_14;
	from trip_node_645_C_2;
	to house_trip_load_645_C_h_14;
	phases CS;
	length 10;
	configuration triplex_line_configuration_1;
}

object triplex_line {
	name trip_line_645_C_h_15;
	from trip_node_645_C_2;
	to house_trip_load_645_C_h_15;
	phases CS;
	length 10;
	configuration triplex_line_configuration_1;
}

object triplex_line {
	name trip_line_645_C_h_16;
	from trip_node_645_C_2;
	to house_trip_load_645_C_h_16;
	phases CS;
	length 10;
	configuration triplex_line_configuration_1;
}

object triplex_line {
	name trip_line_645_C_h_17;
	from trip_node_645_C_3;
	to house_trip_load_645_C_h_17;
	phases CS;
	length 10;
	configuration triplex_line_configuration_1;
}

object triplex_line {
	name trip_line_645_C_h_18;
	from trip_node_645_C_3;
	to house_trip_load_645_C_h_18;
	phases CS;
	length 10;
	configuration triplex_line_configuration_1;
}

object triplex_line {
	name trip_line_645_C_h_19;
	from trip_node_645_C_3;
	to house_trip_load_645_C_h_19;
	phases CS;
	length 10;
	configuration triplex_line_configuration_1;
}

object triplex_line {
	name trip_line_645_C_h_20;
	from trip_node_645_C_3;
	to house_trip_load_645_C_h_20;
	phases CS;
	length 10;
	configuration triplex_line_configuration_1;
}

object triplex_line {
	name trip_line_645_C_h_21;
	from trip_node_645_C_3;
	to house_trip_load_645_C_h_21;
	phases CS;
	length 10;
	configuration triplex_line_configuration_1;
}

object triplex_line {
	name trip_line_645_C_h_22;
	from trip_node_645_C_3;
	to house_trip_load_645_C_h_22;
	phases CS;
	length 10;
	configuration triplex_line_configuration_1;
}

object triplex_line {
	name trip_line_645_C_h_23;
	from trip_node_645_C_3;
	to house_trip_load_645_C_h_23;
	phases CS;
	length 10;
	configuration triplex_line_configuration_1;
}

object triplex_line {
	name trip_line_645_C_h_24;
	from trip_node_645_C_3;
	to house_trip_load_645_C_h_24;
	phases CS;
	length 10;
	configuration triplex_line_configuration_1;
}

object triplex_line {
	name trip_line_645_C_h_25;
	from trip_node_645_C_4;
	to house_trip_load_645_C_h_25;
	phases CS;
	length 10;
	configuration triplex_line_configuration_1;
}

object triplex_line {
	name trip_line_645_C_h_26;
	from trip_node_645_C_4;
	to house_trip_load_645_C_h_26;
	phases CS;
	length 10;
	configuration triplex_line_configuration_1;
}

object triplex_line {
	name trip_line_645_C_h_27;
	from trip_node_645_C_4;
	to house_trip_load_645_C_h_27;
	phases CS;
	length 10;
	configuration triplex_line_configuration_1;
}

object triplex_line {
	name trip_line_645_C_h_28;
	from trip_node_645_C_4;
	to house_trip_load_645_C_h_28;
	phases CS;
	length 10;
	configuration triplex_line_configuration_1;
}

object triplex_line {
	name trip_line_645_C_h_29;
	from trip_node_645_C_4;
	to house_trip_load_645_C_h_29;
	phases CS;
	length 10;
	configuration triplex_line_configuration_1;
}

object triplex_line {
	name trip_line_645_C_h_30;
	from trip_node_645_C_4;
	to house_trip_load_645_C_h_30;
	phases CS;
	length 10;
	configuration triplex_line_configuration_1;
}

object triplex_line {
	name trip_line_645_C_h_31;
	from trip_node_645_C_4;
	to house_trip_load_645_C_h_31;
	phases CS;
	length 10;
	configuration triplex_line_configuration_1;
}

object triplex_line {
	name trip_line_645_C_h_32;
	from trip_node_645_C_4;
	to house_trip_load_645_C_h_32;
	phases CS;
	length 10;
	configuration triplex_line_configuration_1;
}

object triplex_line {
	name trip_line_645_C_h_33;
	from trip_node_645_C_5;
	to house_trip_load_645_C_h_33;
	phases CS;
	length 10;
	configuration triplex_line_configuration_1;
}

object triplex_line {
	name trip_line_645_C_h_34;
	from trip_node_645_C_5;
	to house_trip_load_645_C_h_34;
	phases CS;
	length 10;
	configuration triplex_line_configuration_1;
}

object triplex_line {
	name trip_line_645_C_h_35;
	from trip_node_645_C_5;
	to house_trip_load_645_C_h_35;
	phases CS;
	length 10;
	configuration triplex_line_configuration_1;
}

object triplex_line {
	name trip_line_645_C_h_36;
	from trip_node_645_C_5;
	to house_trip_load_645_C_h_36;
	phases CS;
	length 10;
	configuration triplex_line_configuration_1;
}

object triplex_line {
	name trip_line_645_C_h_37;
	from trip_node_645_C_5;
	to house_trip_load_645_C_h_37;
	phases CS;
	length 10;
	configuration triplex_line_configuration_1;
}

object triplex_line {
	name trip_line_645_C_h_38;
	from trip_node_645_C_5;
	to house_trip_load_645_C_h_38;
	phases CS;
	length 10;
	configuration triplex_line_configuration_1;
}

object triplex_line {
	name trip_line_645_C_h_39;
	from trip_node_645_C_5;
	to house_trip_load_645_C_h_39;
	phases CS;
	length 10;
	configuration triplex_line_configuration_1;
}

object triplex_line {
	name trip_line_645_C_h_40;
	from trip_node_645_C_5;
	to house_trip_load_645_C_h_40;
	phases CS;
	length 10;
	configuration triplex_line_configuration_1;
}

object triplex_line {
	name trip_line_633_A_h_1;
	from trip_node_633_A_1;
	to house_trip_load_633_A_h_1;
	phases AS;
	length 10;
	configuration triplex_line_configuration_1;
}

object triplex_line {
	name trip_line_633_A_h_2;
	from trip_node_633_A_1;
	to house_trip_load_633_A_h_2;
	phases AS;
	length 10;
	configuration triplex_line_configuration_1;
}

object triplex_line {
	name trip_line_633_A_h_3;
	from trip_node_633_A_1;
	to house_trip_load_633_A_h_3;
	phases AS;
	length 10;
	configuration triplex_line_configuration_1;
}

object triplex_line {
	name trip_line_633_A_h_4;
	from trip_node_633_A_1;
	to house_trip_load_633_A_h_4;
	phases AS;
	length 10;
	configuration triplex_line_configuration_1;
}

object triplex_line {
	name trip_line_633_A_h_5;
	from trip_node_633_A_1;
	to house_trip_load_633_A_h_5;
	phases AS;
	length 10;
	configuration triplex_line_configuration_1;
}

object triplex_line {
	name trip_line_633_A_h_6;
	from trip_node_633_A_1;
	to house_trip_load_633_A_h_6;
	phases AS;
	length 10;
	configuration triplex_line_configuration_1;
}

object triplex_line {
	name trip_line_633_A_h_7;
	from trip_node_633_A_1;
	to house_trip_load_633_A_h_7;
	phases AS;
	length 10;
	configuration triplex_line_configuration_1;
}

object triplex_line {
	name trip_line_633_A_h_8;
	from trip_node_633_A_1;
	to house_trip_load_633_A_h_8;
	phases AS;
	length 10;
	configuration triplex_line_configuration_1;
}

object triplex_line {
	name trip_line_633_A_h_9;
	from trip_node_633_A_2;
	to house_trip_load_633_A_h_9;
	phases AS;
	length 10;
	configuration triplex_line_configuration_1;
}

object triplex_line {
	name trip_line_633_A_h_10;
	from trip_node_633_A_2;
	to house_trip_load_633_A_h_10;
	phases AS;
	length 10;
	configuration triplex_line_configuration_1;
}

object triplex_line {
	name trip_line_633_A_h_11;
	from trip_node_633_A_2;
	to house_trip_load_633_A_h_11;
	phases AS;
	length 10;
	configuration triplex_line_configuration_1;
}

object triplex_line {
	name trip_line_633_A_h_12;
	from trip_node_633_A_2;
	to house_trip_load_633_A_h_12;
	phases AS;
	length 10;
	configuration triplex_line_configuration_1;
}

object triplex_line {
	name trip_line_633_A_h_13;
	from trip_node_633_A_2;
	to house_trip_load_633_A_h_13;
	phases AS;
	length 10;
	configuration triplex_line_configuration_1;
}

object triplex_line {
	name trip_line_633_A_h_14;
	from trip_node_633_A_2;
	to house_trip_load_633_A_h_14;
	phases AS;
	length 10;
	configuration triplex_line_configuration_1;
}

object triplex_line {
	name trip_line_633_A_h_15;
	from trip_node_633_A_2;
	to house_trip_load_633_A_h_15;
	phases AS;
	length 10;
	configuration triplex_line_configuration_1;
}

object triplex_line {
	name trip_line_633_A_h_16;
	from trip_node_633_A_2;
	to house_trip_load_633_A_h_16;
	phases AS;
	length 10;
	configuration triplex_line_configuration_1;
}

object triplex_line {
	name trip_line_633_A_h_17;
	from trip_node_633_A_3;
	to house_trip_load_633_A_h_17;
	phases AS;
	length 10;
	configuration triplex_line_configuration_1;
}

object triplex_line {
	name trip_line_633_A_h_18;
	from trip_node_633_A_3;
	to house_trip_load_633_A_h_18;
	phases AS;
	length 10;
	configuration triplex_line_configuration_1;
}

object triplex_line {
	name trip_line_633_A_h_19;
	from trip_node_633_A_3;
	to house_trip_load_633_A_h_19;
	phases AS;
	length 10;
	configuration triplex_line_configuration_1;
}

object triplex_line {
	name trip_line_633_A_h_20;
	from trip_node_633_A_3;
	to house_trip_load_633_A_h_20;
	phases AS;
	length 10;
	configuration triplex_line_configuration_1;
}

object triplex_line {
	name trip_line_633_A_h_21;
	from trip_node_633_A_3;
	to house_trip_load_633_A_h_21;
	phases AS;
	length 10;
	configuration triplex_line_configuration_1;
}

object triplex_line {
	name trip_line_633_A_h_22;
	from trip_node_633_A_3;
	to house_trip_load_633_A_h_22;
	phases AS;
	length 10;
	configuration triplex_line_configuration_1;
}

object triplex_line {
	name trip_line_633_A_h_23;
	from trip_node_633_A_3;
	to house_trip_load_633_A_h_23;
	phases AS;
	length 10;
	configuration triplex_line_configuration_1;
}

object triplex_line {
	name trip_line_633_A_h_24;
	from trip_node_633_A_3;
	to house_trip_load_633_A_h_24;
	phases AS;
	length 10;
	configuration triplex_line_configuration_1;
}

object triplex_line {
	name trip_line_633_A_h_25;
	from trip_node_633_A_4;
	to house_trip_load_633_A_h_25;
	phases AS;
	length 10;
	configuration triplex_line_configuration_1;
}

object triplex_line {
	name trip_line_633_A_h_26;
	from trip_node_633_A_4;
	to house_trip_load_633_A_h_26;
	phases AS;
	length 10;
	configuration triplex_line_configuration_1;
}

object triplex_line {
	name trip_line_633_A_h_27;
	from trip_node_633_A_4;
	to house_trip_load_633_A_h_27;
	phases AS;
	length 10;
	configuration triplex_line_configuration_1;
}

object triplex_line {
	name trip_line_633_A_h_28;
	from trip_node_633_A_4;
	to house_trip_load_633_A_h_28;
	phases AS;
	length 10;
	configuration triplex_line_configuration_1;
}

object triplex_line {
	name trip_line_633_A_h_29;
	from trip_node_633_A_4;
	to house_trip_load_633_A_h_29;
	phases AS;
	length 10;
	configuration triplex_line_configuration_1;
}

object triplex_line {
	name trip_line_633_A_h_30;
	from trip_node_633_A_4;
	to house_trip_load_633_A_h_30;
	phases AS;
	length 10;
	configuration triplex_line_configuration_1;
}

object triplex_line {
	name trip_line_633_A_h_31;
	from trip_node_633_A_4;
	to house_trip_load_633_A_h_31;
	phases AS;
	length 10;
	configuration triplex_line_configuration_1;
}

object triplex_line {
	name trip_line_633_A_h_32;
	from trip_node_633_A_4;
	to house_trip_load_633_A_h_32;
	phases AS;
	length 10;
	configuration triplex_line_configuration_1;
}

object triplex_line {
	name trip_line_633_A_h_33;
	from trip_node_633_A_5;
	to house_trip_load_633_A_h_33;
	phases AS;
	length 10;
	configuration triplex_line_configuration_1;
}

object triplex_line {
	name trip_line_633_A_h_34;
	from trip_node_633_A_5;
	to house_trip_load_633_A_h_34;
	phases AS;
	length 10;
	configuration triplex_line_configuration_1;
}

object triplex_line {
	name trip_line_633_A_h_35;
	from trip_node_633_A_5;
	to house_trip_load_633_A_h_35;
	phases AS;
	length 10;
	configuration triplex_line_configuration_1;
}

object triplex_line {
	name trip_line_633_A_h_36;
	from trip_node_633_A_5;
	to house_trip_load_633_A_h_36;
	phases AS;
	length 10;
	configuration triplex_line_configuration_1;
}

object triplex_line {
	name trip_line_633_A_h_37;
	from trip_node_633_A_5;
	to house_trip_load_633_A_h_37;
	phases AS;
	length 10;
	configuration triplex_line_configuration_1;
}

object triplex_line {
	name trip_line_633_A_h_38;
	from trip_node_633_A_5;
	to house_trip_load_633_A_h_38;
	phases AS;
	length 10;
	configuration triplex_line_configuration_1;
}

object triplex_line {
	name trip_line_633_A_h_39;
	from trip_node_633_A_5;
	to house_trip_load_633_A_h_39;
	phases AS;
	length 10;
	configuration triplex_line_configuration_1;
}

object triplex_line {
	name trip_line_633_A_h_40;
	from trip_node_633_A_5;
	to house_trip_load_633_A_h_40;
	phases AS;
	length 10;
	configuration triplex_line_configuration_1;
}

object triplex_line {
	name trip_line_633_B_h_1;
	from trip_node_633_B_1;
	to house_trip_load_633_B_h_1;
	phases BS;
	length 10;
	configuration triplex_line_configuration_1;
}

object triplex_line {
	name trip_line_633_B_h_2;
	from trip_node_633_B_1;
	to house_trip_load_633_B_h_2;
	phases BS;
	length 10;
	configuration triplex_line_configuration_1;
}

object triplex_line {
	name trip_line_633_B_h_3;
	from trip_node_633_B_1;
	to house_trip_load_633_B_h_3;
	phases BS;
	length 10;
	configuration triplex_line_configuration_1;
}

object triplex_line {
	name trip_line_633_B_h_4;
	from trip_node_633_B_1;
	to house_trip_load_633_B_h_4;
	phases BS;
	length 10;
	configuration triplex_line_configuration_1;
}

object triplex_line {
	name trip_line_633_B_h_5;
	from trip_node_633_B_1;
	to house_trip_load_633_B_h_5;
	phases BS;
	length 10;
	configuration triplex_line_configuration_1;
}

object triplex_line {
	name trip_line_633_B_h_6;
	from trip_node_633_B_1;
	to house_trip_load_633_B_h_6;
	phases BS;
	length 10;
	configuration triplex_line_configuration_1;
}

object triplex_line {
	name trip_line_633_B_h_7;
	from trip_node_633_B_1;
	to house_trip_load_633_B_h_7;
	phases BS;
	length 10;
	configuration triplex_line_configuration_1;
}

object triplex_line {
	name trip_line_633_B_h_8;
	from trip_node_633_B_1;
	to house_trip_load_633_B_h_8;
	phases BS;
	length 10;
	configuration triplex_line_configuration_1;
}

object triplex_line {
	name trip_line_633_B_h_9;
	from trip_node_633_B_2;
	to house_trip_load_633_B_h_9;
	phases BS;
	length 10;
	configuration triplex_line_configuration_1;
}

object triplex_line {
	name trip_line_633_B_h_10;
	from trip_node_633_B_2;
	to house_trip_load_633_B_h_10;
	phases BS;
	length 10;
	configuration triplex_line_configuration_1;
}

object triplex_line {
	name trip_line_633_B_h_11;
	from trip_node_633_B_2;
	to house_trip_load_633_B_h_11;
	phases BS;
	length 10;
	configuration triplex_line_configuration_1;
}

object triplex_line {
	name trip_line_633_B_h_12;
	from trip_node_633_B_2;
	to house_trip_load_633_B_h_12;
	phases BS;
	length 10;
	configuration triplex_line_configuration_1;
}

object triplex_line {
	name trip_line_633_B_h_13;
	from trip_node_633_B_2;
	to house_trip_load_633_B_h_13;
	phases BS;
	length 10;
	configuration triplex_line_configuration_1;
}

object triplex_line {
	name trip_line_633_B_h_14;
	from trip_node_633_B_2;
	to house_trip_load_633_B_h_14;
	phases BS;
	length 10;
	configuration triplex_line_configuration_1;
}

object triplex_line {
	name trip_line_633_B_h_15;
	from trip_node_633_B_2;
	to house_trip_load_633_B_h_15;
	phases BS;
	length 10;
	configuration triplex_line_configuration_1;
}

object triplex_line {
	name trip_line_633_B_h_16;
	from trip_node_633_B_2;
	to house_trip_load_633_B_h_16;
	phases BS;
	length 10;
	configuration triplex_line_configuration_1;
}

object triplex_line {
	name trip_line_633_B_h_17;
	from trip_node_633_B_3;
	to house_trip_load_633_B_h_17;
	phases BS;
	length 10;
	configuration triplex_line_configuration_1;
}

object triplex_line {
	name trip_line_633_B_h_18;
	from trip_node_633_B_3;
	to house_trip_load_633_B_h_18;
	phases BS;
	length 10;
	configuration triplex_line_configuration_1;
}

object triplex_line {
	name trip_line_633_B_h_19;
	from trip_node_633_B_3;
	to house_trip_load_633_B_h_19;
	phases BS;
	length 10;
	configuration triplex_line_configuration_1;
}

object triplex_line {
	name trip_line_633_B_h_20;
	from trip_node_633_B_3;
	to house_trip_load_633_B_h_20;
	phases BS;
	length 10;
	configuration triplex_line_configuration_1;
}

object triplex_line {
	name trip_line_633_B_h_21;
	from trip_node_633_B_3;
	to house_trip_load_633_B_h_21;
	phases BS;
	length 10;
	configuration triplex_line_configuration_1;
}

object triplex_line {
	name trip_line_633_B_h_22;
	from trip_node_633_B_3;
	to house_trip_load_633_B_h_22;
	phases BS;
	length 10;
	configuration triplex_line_configuration_1;
}

object triplex_line {
	name trip_line_633_B_h_23;
	from trip_node_633_B_3;
	to house_trip_load_633_B_h_23;
	phases BS;
	length 10;
	configuration triplex_line_configuration_1;
}

object triplex_line {
	name trip_line_633_B_h_24;
	from trip_node_633_B_3;
	to house_trip_load_633_B_h_24;
	phases BS;
	length 10;
	configuration triplex_line_configuration_1;
}

object triplex_line {
	name trip_line_633_B_h_25;
	from trip_node_633_B_4;
	to house_trip_load_633_B_h_25;
	phases BS;
	length 10;
	configuration triplex_line_configuration_1;
}

object triplex_line {
	name trip_line_633_B_h_26;
	from trip_node_633_B_4;
	to house_trip_load_633_B_h_26;
	phases BS;
	length 10;
	configuration triplex_line_configuration_1;
}

object triplex_line {
	name trip_line_633_B_h_27;
	from trip_node_633_B_4;
	to house_trip_load_633_B_h_27;
	phases BS;
	length 10;
	configuration triplex_line_configuration_1;
}

object triplex_line {
	name trip_line_633_B_h_28;
	from trip_node_633_B_4;
	to house_trip_load_633_B_h_28;
	phases BS;
	length 10;
	configuration triplex_line_configuration_1;
}

object triplex_line {
	name trip_line_633_B_h_29;
	from trip_node_633_B_4;
	to house_trip_load_633_B_h_29;
	phases BS;
	length 10;
	configuration triplex_line_configuration_1;
}

object triplex_line {
	name trip_line_633_B_h_30;
	from trip_node_633_B_4;
	to house_trip_load_633_B_h_30;
	phases BS;
	length 10;
	configuration triplex_line_configuration_1;
}

object triplex_line {
	name trip_line_633_B_h_31;
	from trip_node_633_B_4;
	to house_trip_load_633_B_h_31;
	phases BS;
	length 10;
	configuration triplex_line_configuration_1;
}

object triplex_line {
	name trip_line_633_B_h_32;
	from trip_node_633_B_4;
	to house_trip_load_633_B_h_32;
	phases BS;
	length 10;
	configuration triplex_line_configuration_1;
}

object triplex_line {
	name trip_line_633_B_h_33;
	from trip_node_633_B_5;
	to house_trip_load_633_B_h_33;
	phases BS;
	length 10;
	configuration triplex_line_configuration_1;
}

object triplex_line {
	name trip_line_633_B_h_34;
	from trip_node_633_B_5;
	to house_trip_load_633_B_h_34;
	phases BS;
	length 10;
	configuration triplex_line_configuration_1;
}

object triplex_line {
	name trip_line_633_B_h_35;
	from trip_node_633_B_5;
	to house_trip_load_633_B_h_35;
	phases BS;
	length 10;
	configuration triplex_line_configuration_1;
}

object triplex_line {
	name trip_line_633_B_h_36;
	from trip_node_633_B_5;
	to house_trip_load_633_B_h_36;
	phases BS;
	length 10;
	configuration triplex_line_configuration_1;
}

object triplex_line {
	name trip_line_633_B_h_37;
	from trip_node_633_B_5;
	to house_trip_load_633_B_h_37;
	phases BS;
	length 10;
	configuration triplex_line_configuration_1;
}

object triplex_line {
	name trip_line_633_B_h_38;
	from trip_node_633_B_5;
	to house_trip_load_633_B_h_38;
	phases BS;
	length 10;
	configuration triplex_line_configuration_1;
}

object triplex_line {
	name trip_line_633_B_h_39;
	from trip_node_633_B_5;
	to house_trip_load_633_B_h_39;
	phases BS;
	length 10;
	configuration triplex_line_configuration_1;
}

object triplex_line {
	name trip_line_633_B_h_40;
	from trip_node_633_B_5;
	to house_trip_load_633_B_h_40;
	phases BS;
	length 10;
	configuration triplex_line_configuration_1;
}

object triplex_line {
	name trip_line_633_C_h_1;
	from trip_node_633_C_1;
	to house_trip_load_633_C_h_1;
	phases CS;
	length 10;
	configuration triplex_line_configuration_1;
}

object triplex_line {
	name trip_line_633_C_h_2;
	from trip_node_633_C_1;
	to house_trip_load_633_C_h_2;
	phases CS;
	length 10;
	configuration triplex_line_configuration_1;
}

object triplex_line {
	name trip_line_633_C_h_3;
	from trip_node_633_C_1;
	to house_trip_load_633_C_h_3;
	phases CS;
	length 10;
	configuration triplex_line_configuration_1;
}

object triplex_line {
	name trip_line_633_C_h_4;
	from trip_node_633_C_1;
	to house_trip_load_633_C_h_4;
	phases CS;
	length 10;
	configuration triplex_line_configuration_1;
}

object triplex_line {
	name trip_line_633_C_h_5;
	from trip_node_633_C_1;
	to house_trip_load_633_C_h_5;
	phases CS;
	length 10;
	configuration triplex_line_configuration_1;
}

object triplex_line {
	name trip_line_633_C_h_6;
	from trip_node_633_C_1;
	to house_trip_load_633_C_h_6;
	phases CS;
	length 10;
	configuration triplex_line_configuration_1;
}

object triplex_line {
	name trip_line_633_C_h_7;
	from trip_node_633_C_1;
	to house_trip_load_633_C_h_7;
	phases CS;
	length 10;
	configuration triplex_line_configuration_1;
}

object triplex_line {
	name trip_line_633_C_h_8;
	from trip_node_633_C_1;
	to house_trip_load_633_C_h_8;
	phases CS;
	length 10;
	configuration triplex_line_configuration_1;
}

object triplex_line {
	name trip_line_633_C_h_9;
	from trip_node_633_C_2;
	to house_trip_load_633_C_h_9;
	phases CS;
	length 10;
	configuration triplex_line_configuration_1;
}

object triplex_line {
	name trip_line_633_C_h_10;
	from trip_node_633_C_2;
	to house_trip_load_633_C_h_10;
	phases CS;
	length 10;
	configuration triplex_line_configuration_1;
}

object triplex_line {
	name trip_line_633_C_h_11;
	from trip_node_633_C_2;
	to house_trip_load_633_C_h_11;
	phases CS;
	length 10;
	configuration triplex_line_configuration_1;
}

object triplex_line {
	name trip_line_633_C_h_12;
	from trip_node_633_C_2;
	to house_trip_load_633_C_h_12;
	phases CS;
	length 10;
	configuration triplex_line_configuration_1;
}

object triplex_line {
	name trip_line_633_C_h_13;
	from trip_node_633_C_2;
	to house_trip_load_633_C_h_13;
	phases CS;
	length 10;
	configuration triplex_line_configuration_1;
}

object triplex_line {
	name trip_line_633_C_h_14;
	from trip_node_633_C_2;
	to house_trip_load_633_C_h_14;
	phases CS;
	length 10;
	configuration triplex_line_configuration_1;
}

object triplex_line {
	name trip_line_633_C_h_15;
	from trip_node_633_C_2;
	to house_trip_load_633_C_h_15;
	phases CS;
	length 10;
	configuration triplex_line_configuration_1;
}

object triplex_line {
	name trip_line_633_C_h_16;
	from trip_node_633_C_2;
	to house_trip_load_633_C_h_16;
	phases CS;
	length 10;
	configuration triplex_line_configuration_1;
}

...